projects/admm_4bus/source/opf_pypower/case.py
# Copyright (c) 1996-2015 PSERC. All rights reserved.
# Use of this source code is governed by a BSD-style
# license that can be found in the LICENSE file.

"""Power flow data for 9 bus, 3 generator case.
"""

from numpy import array,arange, pi, multiply

def case():
    """Power flow data for 9 bus, 3 generator case.
    Please see L{caseformat} for details on the case file format.

    Identical to L{case9}, with the addition of non-zero costs for
    reactive power.

    @return: Power flow data for 9 bus, 3 generator case.
    """
    #ppc = {"version": '2'}
    ppc = {}
    ##-----  Power Flow Data  -----##
    ## system MVA base
    ppc["baseMVA"] = 100.0

    ## bus data
    # bus_i type Pd Qd Gs Bs area Vm Va baseKV zone Vmax Vmin
    ppc["bus"] = array([
        [1,  3, 0,    0, 0, 0, 1, 1, 0, 0.4, 1, 1.1, 0.9, 0,0, 0, 0],
        [2,  1, 0,    0, 0, 0, 1, 1, 0, 0.4, 1, 1.1, 0.9, 0,0, 0, 0],
        [3,  1, 0,    0, 0, 0, 1, 1, 0, 0.4, 1, 1.1, 0.9, 0,0, 0, 0],
        [4,  1, 0,    0, 0, 0, 1, 1, 0, 0.4, 1, 1.1, 0.9, 0,0, 0, 0],
        [5,  1, 0,    0, 0, 0, 1, 1, 0, 0.4, 1, 1.1, 0.9, 0,0, 0, 0],
        [6,  1, 0,    0, 0, 0, 1, 1, 0, 0.4, 1, 1.1, 0.9, 0,0, 0, 0],
        [7,  1, 0,    0, 0, 0, 1, 1, 0, 0.4, 1, 1.1, 0.9, 0,0, 0, 0],
        [8,  1, 0,    0, 0, 0, 1, 1, 0, 0.4, 1, 1.1, 0.9, 0,0, 0, 0],
        [9,  1, 0,    0, 0, 0, 1, 1, 0, 0.4, 1, 1.1, 0.9, 0,0, 0, 0],
        [10, 1, 0,    0, 0, 0, 1, 1, 0, 0.4, 1, 1.1, 0.9, 0,0, 0, 0],
        [11, 1, 0,    0, 0, 0, 1, 1, 0, 0.4, 1, 1.1, 0.9, 0,0, 0, 0],
        [12, 1, 0,    0, 0, 0, 1, 1, 0, 0.4, 1, 1.1, 0.9, 0,0, 0, 0],
        [13, 1, 0,    0, 0, 0, 1, 1, 0, 0.4, 1, 1.1, 0.9, 0,0, 0, 0],
        [14, 1, 0,    0, 0, 0, 1, 1, 0, 0.4, 1, 1.1, 0.9, 0,0, 0, 0],
        [15, 1, 0,    0, 0, 0, 1, 1, 0, 0.4, 1, 1.1, 0.9, 0,0, 0, 0],
        [16, 1, 0,    0, 0, 0, 1, 1, 0, 0.4, 1, 1.1, 0.9, 0,0, 0, 0]
    ])

    ## generator data
    # bus, Pg, Qg, Qmax, Qmin, Vg, mBase, status, Pmax, Pmin, Pc1, Pc2,
    # Qc1min, Qc1max, Qc2min, Qc2max, ramp_agc, ramp_10, ramp_30, ramp_q, apf
    ppc["gen"] = array([
        [1,	0,	0,	10,	-10,	1.0224,	100,	1,	10,	-10,	0,	0,	0,	0,	0,	0,	0,	0,	0,	0, 0, 0,0, 0, 0],
        [3 ,0,   0,   50e-3, -50e-3,   1,    100, 1,   0,   0,   0,   0,   0,   0,   0,   0,   0,   0,   0,   0,   0, 0,0, 0, 0],
        [5 , 0,   0,   10e-3, -10e-3,   1,    100, 1,   0,   0,   0,   0,   0,   0,   0,   0,   0,   0,   0,   0,   0, 0,0, 0, 0],
        [10 , 0,   0,   10e-3, -10e-3,   1,    100, 1,   0,   0,   0,   0,   0,   0,   0,   0,   0,   0,   0,   0,   0, 0,0, 0, 0],
        [13 ,0,   0,   10e-3, -10e-3,   1,    100, 1,   0,   0,   0,   0,   0,   0,   0,   0,   0,   0,   0,   0,   0, 0,0, 0, 0],
        [15 ,  0,   0,   50e-3, -50e-3,   1,    100, 1,   0,   0,   0,   0,   0,   0,   0,   0,   0,   0,   0,   0,   0, 0,0, 0, 0]
    ])
    load_b = array([2, 4, 9, 12, 14])
    ppc["bus"][load_b, 2] = multiply(array([-2.1125, -0.2231, -0.1664, -0.0719, -1.4633]).T, 0.03)
    ppc["bus"][load_b, 3] = multiply(array([1.6492, 0.4054, 0.8599, 0.8845, 0.6778]).T, 0.03)
    ## branch data
    # fbus, tbus, r, x, b, rateA, rateB, rateC, ratio, angle, status, angmin, angmax
    ppc["branch"] = array([
        [1,   2, 0.0, 0.0, 0.0, 250, 250, 250, 0, 0, 1, -360, 360, 0,0, 0, 0, 0,0, 0, 0],
        [1,   8, 0.0, 0.0, 0.0, 250, 250, 250, 0, 0, 1, -360, 360, 0,0, 0, 0, 0,0, 0, 0],
        [1,  15, 0.0, 0.0, 0.0, 250, 250, 250, 0, 0, 1, -360, 360, 0,0, 0, 0, 0,0, 0, 0],
        [2,   3, 0.0, 0.0, 0.0, 250, 250, 250, 0, 0, 1, -360, 360, 0,0, 0, 0, 0,0, 0, 0],
        [2,   6, 0.0, 0.0, 0.0, 250, 250, 250, 0, 0, 1, -360, 360, 0,0, 0, 0, 0,0, 0, 0],
        [2,   7, 0.0, 0.0, 0.0, 250, 250, 250, 0, 0, 1, -360, 360, 0,0, 0, 0, 0,0, 0, 0],
        [3,   4, 0.0, 0.0, 0.0, 250, 250, 250, 0, 0, 1, -360, 360, 0,0, 0, 0, 0,0, 0, 0],
        [4,   5, 0.0, 0.0, 0.0, 250, 250, 250, 0, 0, 1, -360, 360, 0,0, 0, 0, 0,0, 0, 0],
        [8,   9, 0.0, 0.0, 0.0, 250, 250, 250, 0, 0, 1, -360, 360, 0,0, 0, 0, 0,0, 0, 0],
        [8,  12, 0.0, 0.0, 0.0, 250, 250, 250, 0, 0, 1, -360, 360, 0,0, 0, 0, 0,0, 0, 0],
        [8,  13, 0.0, 0.0, 0.0, 250, 250, 250, 0, 0, 1, -360, 360, 0,0, 0, 0, 0,0, 0, 0],
        [9,  10, 0.0, 0.0, 0.0, 250, 250, 250, 0, 0, 1, -360, 360, 0,0, 0, 0, 0,0, 0, 0],
        [9,  14, 0.0, 0.0, 0.0, 250, 250, 250, 0, 0, 1, -360, 360, 0,0, 0, 0, 0,0, 0, 0],
        [10, 11, 0.0, 0.0, 0.0, 250, 250, 250, 0, 0, 1, -360, 360, 0,0, 0, 0, 0,0, 0, 0],
        [15, 16, 0.0, 0.0, 0.0, 250, 250, 250, 0, 0, 1, -360, 360, 0,0, 0, 0, 0,0, 0, 0]
    ])
    R1 = 0.43
    L1 = 0.4e-3
    RS1 = 0.32
    LS1 = 0.39e-3
    Zbase = (0.4*0.4/100)
    branch_phase =array([
        [1, 1, 2, 188, R1, L1],
        [2, 1 ,8, 346, R1, L1],
        [3 ,1 ,15,501, R1 ,L1],
        [4, 2, 3, 130, RS1,LS1],
        [5, 2, 6, 145, RS1,LS1],
        [6, 2 ,7, 157, RS1,LS1],
        [7, 3, 4, 185, RS1,LS1],
        [8, 4, 5, 1000,RS1,LS1],
        [9, 8 ,9, 416, RS1,LS1],
        [10,8 ,12,130, RS1,LS1],
        [11,8 ,13,121, RS1,LS1],
        [12,9 ,10,130, RS1,LS1],
        [13,9 ,14,127, RS1,LS1],
        [14,10,11,251, RS1,LS1],
        [15,15,16,345, RS1,LS1]
    ])
    ppc["branch"][:, [2,3]] = multiply(array([branch_phase[:, 4]*branch_phase[:, 3], branch_phase[:, 4]*branch_phase[:, 4]*100*pi]).T,0.001/Zbase)

    ##-----  OPF Data  -----##
    ## area data
    # area refbus


    ## generator cost data
    # 1 startup shutdown n x1 y1 ... xn yn
    # 2 startup shutdown n c(n-1) ... c0


    return ppc
